<NUMBER OF ZONES> 1725
<TOTAL OD FLOW> 434767.079167
<END OF METADATA>

Origin 1
	635 :	0.5;	1106 :	1.0;	3221 :	1.0;	1722 :	1.25;	1561 :	1.25;	414 :	1.25;	1830 :	1.25;	1106 :	1.875;	485 :	2.5;	2750 :	2.5;	889 :	2.5;	47 :	2.5;	5320 :	2.5;	41 :	2.5;	1677 :	2.5;	8210 :	2.5;	2245 :	2.5;	58 :	2.5;	8671 :	2.5;	1848 :	2.5;	10198 :	3.75;	1106 :	3.75;	4832 :	3.75;	3846 :	3.75;	12500 :	3.75;	3463 :	3.75;	138 :	3.75;	1848 :	5.0;	1978 :	5.0;	11799 :	5.0;	453 :	5.0;	1679 :	5.0;	207 :	5.0;	1210 :	5.0;	9866 :	6.25;	7123 :	6.25;	1316 :	6.25;	4826 :	6.25;	2339 :	7.5;	3419 :	7.5;	7520 :	8.75;	2516 :	8.75;	1848 :	10.0;
Origin 2
	1848 :	7.5;	755 :	15.0;
Origin 4
	89 :	1.0;	10192 :	1.25;	268 :	1.25;	6557 :	1.5625;	485 :	2.5;	1041 :	2.5;	474 :	2.5;	867 :	2.5;	1106 :	2.5;	5483 :	2.5;	7520 :	2.5;	7520 :	2.5;	12328 :	2.5;	125 :	2.5;	14542 :	2.5;	3225 :	2.5;	13439 :	3.125;	11739 :	3.125;	1106 :	3.75;	3492 :	5.0;	4832 :	5.0;	3636 :	5.0;	8210 :	5.0;	6543 :	5.0;	101 :	6.25;	9955 :	6.25;	558 :	6.875;	4832 :	7.5;	7624 :	8.125;	3419 :	10.0;
Origin 5
	2705 :	5.0;
Origin 6
	483 :	13.75;	106 :	23.75;
Origin 8
	282 :	1.0;	683 :	1.0;	1561 :	1.0;	445 :	1.25;	37 :	1.875;	59 :	1.875;	51 :	1.875;	702 :	1.875;	319 :	1.875;	70 :	1.875;	2950 :	2.5;	2850 :	2.5;	1883 :	2.5;	4529 :	2.5;	3009 :	2.5;	1020 :	2.5;	8210 :	2.5;	352 :	2.5;	730 :	2.5;	8829 :	2.5;	3283 :	2.5;	11739 :	2.5;	2985 :	2.5;	7164 :	2.5;	2516 :	2.5;	11739 :	3.75;	85 :	3.75;	1106 :	3.75;	31 :	3.75;	9124 :	3.75;	1258 :	3.75;	8210 :	3.75;	8210 :	3.75;	9299 :	3.75;	7875 :	5.0;	944 :	5.0;	1323 :	5.0;	3636 :	5.0;	17 :	5.0;	1583 :	5.0;	171 :	5.0;	7730 :	5.0;	4832 :	5.0;	2777 :	5.0;	7649 :	5.625;	8210 :	6.25;	682 :	6.25;	759 :	6.25;	8349 :	6.25;	129 :	6.25;	7875 :	6.25;	9955 :	6.25;	514 :	7.5;	3636 :	8.75;	175 :	8.75;	5695 :	9.5833333325;	755 :	10.0;	2516 :	10.0;	257 :	10.0;	5787 :	10.0;	11739 :	10.0;	624 :	10.0;	1919 :	12.5;	560 :	12.5;	1070 :	12.5;	7730 :	13.75;	4300 :	15.0;	8210 :	18.75;	54 :	19.375;	14489 :	20.0;
Origin 11
	867 :	0.83333333325;	54 :	2.5;	106 :	2.5;	2705 :	2.5;	7977 :	2.5;	827 :	2.5;	7016 :	2.5;	3869 :	2.5;	683 :	2.5;	22 :	2.5;	811 :	2.5;	358 :	2.5;	628 :	2.5;	379 :	2.5;	578 :	2.5;	66 :	2.5;	3636 :	2.5;	96 :	2.5;	4832 :	2.5;	2516 :	2.5;	9392 :	2.5;	2658 :	2.5;	91 :	2.5;	1263 :	2.5;	560 :	2.5;	445 :	2.5;	8210 :	2.5;	175 :	2.5;	1568 :	2.5;	255 :	2.5;	1658 :	2.5;	1395 :	2.5;	1182 :	2.5;	196 :	2.5;	1115 :	2.5;	1179 :	2.5;	2887 :	2.5;	127 :	2.5;	559 :	2.5;	443 :	2.5;	505 :	2.5;	730 :	2.5;	45 :	2.5;	95 :	2.5;	7286 :	2.5;	1331 :	2.5;	5632 :	2.5;	1067 :	2.5;	1008 :	2.5;	2171 :	2.5;	623 :	2.5;	4658 :	2.5;	11739 :	2.5;	14542 :	2.5;	593 :	2.5;	1417 :	2.5;	1622 :	2.5;	6178 :	2.5;	7021 :	2.5;	576 :	3.125;	10022 :	3.75;	5695 :	3.75;	3094 :	3.75;	723 :	3.75;	2516 :	3.75;	3636 :	3.75;	1732 :	3.75;	10296 :	3.75;	503 :	3.75;	26 :	3.75;	6557 :	3.75;	59 :	4.375;	2622 :	5.0;	3636 :	5.0;	1070 :	5.0;	352 :	5.0;	3446 :	5.0;	483 :	6.25;	410 :	6.25;	1864 :	6.25;	184 :	6.25;	1583 :	6.25;	624 :	6.25;	4782 :	6.25;	28 :	7.5;	8210 :	7.5;	414 :	7.5;	962 :	8.125;	1930 :	8.75;	2325 :	8.75;	2850 :	11.25;	111 :	11.25;	4083 :	11.25;	3755 :	11.875;	229 :	12.5;	1432 :	13.75;	129 :	13.75;
Origin 13
	419 :	0.83333333325;	2950 :	0.83333333325;	1919 :	1.0;	6178 :	1.0;	1106 :	1.25;	1274 :	1.25;	765 :	1.25;	1697 :	1.25;	7875 :	1.25;	630 :	1.25;	7520 :	1.25;	113 :	1.25;	3636 :	1.25;	14489 :	1.875;	2705 :	2.5;	1206 :	2.5;	133 :	2.5;	2516 :	2.5;	3827 :	2.5;	5695 :	2.5;	5440 :	2.5;	10192 :	2.5;	1784 :	2.5;	1596 :	2.5;	171 :	2.5;	610 :	2.5;	3636 :	2.5;	7730 :	2.5;	514 :	2.5;	2516 :	2.5;	560 :	2.5;	8210 :	2.5;	7520 :	2.5;	944 :	2.5;	6 :	2.5;	3636 :	2.5;	3636 :	2.5;	10870 :	2.5;	574 :	2.5;	1084 :	2.5;	882 :	2.5;	460 :	2.5;	1788 :	2.5;	1106 :	2.5;	11739 :	2.5;	7520 :	2.5;	10296 :	2.5;	6543 :	2.5;	7977 :	2.5;	11313 :	2.5;	3849 :	2.5;	2427 :	2.5;	4832 :	2.5;	558 :	3.125;	3636 :	3.125;	3636 :	3.75;	7016 :	3.75;	200 :	3.75;	5807 :	3.75;	2167 :	3.75;	3636 :	3.75;	1323 :	3.75;	981 :	3.75;	278 :	3.75;	7164 :	3.75;	5780 :	3.75;	136 :	3.75;	233 :	3.75;	8210 :	3.75;	1106 :	3.75;	491 :	5.0;	11799 :	5.0;	4405 :	5.0;	65 :	5.0;	1395 :	5.0;	983 :	5.0;	1583 :	5.0;	9130 :	5.0;	4826 :	5.0;	106 :	5.8333333325;	483 :	6.25;	302 :	6.25;	3636 :	6.25;	682 :	6.25;	1452 :	6.25;	52 :	6.25;	4826 :	6.25;	730 :	6.25;	623 :	6.25;	10296 :	6.25;	474 :	7.5;	683 :	7.5;	5483 :	7.5;	426 :	7.5;	443 :	7.5;	7730 :	7.5;	8210 :	8.75;	790 :	8.75;	3636 :	8.75;	873 :	11.25;	3954 :	11.25;	3676 :	11.25;
Origin 15
	6557 :	0.5;	1106 :	0.83333333325;	2405 :	0.83333333325;	4123 :	0.83333333325;	6557 :	0.83333333325;	264 :	1.0;	3636 :	1.0;	642 :	1.0;	1607 :	1.0;	3636 :	1.0;	268 :	1.0;	5881 :	1.0;	3859 :	1.0;	222 :	1.0;	348 :	1.0;	171 :	1.0;	794 :	1.0;	7520 :	1.0;	934 :	1.0;	11739 :	1.0;	12266 :	1.0;	11739 :	1.0;	5881 :	1.25;	7875 :	1.25;	4063 :	1.25;	171 :	1.25;	7579 :	1.25;	570 :	1.875;	7977 :	1.875;	2950 :	2.5;	10 :	2.5;	3869 :	2.5;	3500 :	2.5;	3710 :	2.5;	1784 :	2.5;	331 :	2.5;	2320 :	2.5;	256 :	2.5;	7730 :	2.5;	1451 :	2.5;	125 :	2.5;	1983 :	2.5;	277 :	2.5;	1470 :	2.5;	647 :	2.5;	9286 :	2.5;	617 :	2.5;	7021 :	2.5;	1360 :	2.5;	3636 :	2.5;	14489 :	2.5;	3363 :	2.5;	2950 :	2.5;	3614 :	2.5;	10298 :	2.5;	3636 :	2.5;	10298 :	2.5;	123 :	2.5;	1673 :	2.5;	6090 :	2.5;	6557 :	2.5;	394 :	2.5;	2697 :	2.5;	8210 :	2.5;	171 :	2.5;	8210 :	3.125;	7520 :	3.125;	2516 :	3.125;	11773 :	3.75;	811 :	3.75;	3636 :	3.75;	863 :	3.75;	4123 :	3.75;	3957 :	3.75;	6316 :	3.75;	129 :	3.75;	492 :	3.75;	441 :	3.75;	9600 :	3.75;	5881 :	3.75;	304 :	3.75;	875 :	3.75;	9493 :	3.75;	7102 :	3.75;	3463 :	3.75;	2180 :	3.75;	503 :	3.75;	6481 :	3.75;	9818 :	3.75;	3463 :	3.75;	870 :	5.0;	6426 :	5.0;	1162 :	5.0;	3036 :	5.0;	4123 :	5.0;	9124 :	5.625;	723 :	6.25;	2386 :	6.25;	4177 :	6.25;	373 :	6.25;	1539 :	6.25;	709 :	6.25;	5239 :	6.25;	11739 :	6.25;	1714 :	6.25;	8567 :	6.25;	754 :	6.25;	885 :	6.25;	7520 :	6.25;	4123 :	6.25;	7236 :	6.25;	4564 :	7.5;	571 :	7.5;	958 :	7.5;	574 :	7.5;	4670 :	7.5;	13062 :	7.5;	9299 :	7.5;	184 :	8.0;	13723 :	8.75;	437 :	8.75;	3419 :	8.75;	758 :	8.75;	3623 :	8.75;	9299 :	8.75;	735 :	8.75;	5881 :	8.75;	358 :	10.0;	14083 :	10.0;	2874 :	10.0;	1338 :	10.0;	6685 :	10.0;	7123 :	10.0;	719 :	10.0;	2673 :	11.25;	1387 :	11.875;	1109 :	15.0;	1372 :	18.75;	879 :	20.625;	962 :	23.75;
Origin 17
	558 :	0.33333333325;	224 :	0.5;	31 :	0.5;	1452 :	0.5;	2950 :	1.0;	2516 :	1.0;	151 :	1.0;	7730 :	1.0;	277 :	1.0;	171 :	1.0;	377 :	1.0;	8567 :	1.0;	483 :	1.25;	485 :	1.25;	1643 :	1.25;	1561 :	1.25;	4832 :	1.25;	4485 :	1.25;	3636 :	1.25;	8210 :	1.25;	7579 :	1.25;	342 :	1.875;	7730 :	1.875;	730 :	2.08333333325;	264 :	2.5;	1041 :	2.5;	63 :	2.5;	2516 :	2.5;	4395 :	2.5;	867 :	2.5;	1274 :	2.5;	2516 :	2.5;	46 :	2.5;	3053 :	2.5;	2628 :	2.5;	2270 :	2.5;	4434 :	2.5;	6178 :	2.5;	2516 :	2.5;	182 :	3.0;	914 :	3.5;	8 :	3.75;	3636 :	3.75;	96 :	3.75;	5881 :	3.75;	4529 :	3.75;	11739 :	3.75;	11739 :	3.75;	3957 :	3.75;	958 :	3.75;	72 :	3.75;	4777 :	3.75;	889 :	5.0;	331 :	5.0;	5807 :	5.0;	514 :	5.0;	3297 :	5.0;	246 :	5.0;	790 :	6.25;	1848 :	6.25;	3221 :	6.25;	962 :	6.25;	279 :	6.25;	7875 :	6.25;	1008 :	6.25;	292 :	6.25;	2303 :	6.25;	6557 :	6.25;	476 :	7.5;	4033 :	7.5;
Origin 19
	3859 :	0.5;	2359 :	0.83333333325;	400 :	0.83333333325;	2850 :	1.0;	6178 :	1.0;	669 :	1.0;	161 :	1.0;	8539 :	1.0;	578 :	1.25;	73 :	1.25;	981 :	1.25;	1047 :	1.25;	4826 :	1.25;	1376 :	1.25;	4832 :	1.5625;	880 :	1.66666666675;	664 :	1.875;	6426 :	1.875;	790 :	2.5;	3869 :	2.5;	4259 :	2.5;	2622 :	2.5;	1454 :	2.5;	3094 :	2.5;	7730 :	2.5;	3302 :	2.5;	10169 :	2.5;	4529 :	2.5;	507 :	2.5;	4826 :	2.5;	3694 :	2.5;	255 :	2.5;	3636 :	2.5;	3636 :	2.5;	983 :	2.5;	3286 :	2.5;	2271 :	2.5;	619 :	2.5;	730 :	2.5;	298 :	2.5;	1150 :	2.5;	1008 :	2.5;	7102 :	2.5;	2516 :	2.5;	4999 :	2.5;	1622 :	2.5;	1805 :	2.5;	7579 :	2.5;	3655 :	2.5;	8735 :	2.5;	133 :	2.875;	2348 :	3.125;	7173 :	3.125;	3492 :	3.75;	5563 :	3.75;	889 :	3.75;	9299 :	3.75;	1263 :	3.75;	424 :	3.75;	11739 :	3.75;	10308 :	3.75;	4653 :	3.75;	2705 :	5.0;	13723 :	5.0;	642 :	5.0;	3419 :	5.0;	1415 :	5.0;	2942 :	5.0;	460 :	5.0;	609 :	5.0;	300 :	5.0;	1078 :	5.0;	1307 :	5.0;	4563 :	5.8333333325;	323 :	6.25;	4832 :	6.25;	89 :	6.25;	1451 :	6.25;	391 :	6.25;	702 :	6.25;	7286 :	6.25;	2950 :	7.5;	485 :	7.5;	474 :	7.5;	560 :	7.5;	12328 :	7.5;	647 :	7.5;	8671 :	7.5;	8533 :	7.5;	428 :	7.5;	1978 :	8.75;	159 :	8.75;	2516 :	8.75;	1919 :	10.0;	574 :	10.0;	11739 :	10.0;	380 :	11.25;	331 :	12.5;
Origin 21
	8210 :	0.2;	3636 :	0.41666666675;	483 :	1.0;	380 :	1.0;	47 :	1.0;	958 :	1.0;	4396 :	2.5;	31 :	2.5;	1646 :	2.5;	1932 :	2.5;	4826 :	2.5;	1181 :	2.5;	4568 :	2.5;	1500 :	2.5;	1848 :	3.75;	1848 :	3.75;	13718 :	3.75;	4826 :	3.75;	7730 :	3.75;	4832 :	5.0;	13723 :	5.0;	308 :	5.0;	5320 :	5.0;	1199 :	5.0;	559 :	5.0;	485 :	6.25;	91 :	6.25;	4063 :	6.25;	1978 :	7.5;	2549 :	7.5;	8092 :	7.5;	3463 :	7.5;	1511 :	8.75;	46 :	8.75;	10296 :	8.75;	8210 :	10.0;	11739 :	10.0;
Origin 23
	787 :	0.5;	7579 :	0.5;	7193 :	1.0;	882 :	1.0;	3589 :	1.0;	858 :	1.25;	3636 :	1.25;	21 :	1.5;	4826 :	1.875;	2429 :	1.875;	257 :	2.08333333325;	54 :	2.5;	1848 :	2.5;	483 :	2.5;	485 :	2.5;	10198 :	2.5;	224 :	2.5;	4395 :	2.5;	4582 :	2.5;	889 :	2.5;	558 :	2.5;	8771 :	2.5;	2073 :	2.5;	12328 :	2.5;	375 :	2.5;	638 :	2.5;	5 :	2.5;	11454 :	2.5;	1137 :	2.5;	2279 :	2.5;	9217 :	2.5;	9171 :	2.5;	171 :	2.5;	2681 :	3.125;	9130 :	3.125;	8827 :	3.75;	476 :	3.75;	63 :	3.75;	362 :	3.75;	380 :	3.75;	96 :	3.75;	7353 :	3.75;	3302 :	3.75;	822 :	3.75;	3694 :	3.75;	401 :	3.75;	9299 :	3.75;	441 :	3.75;	1266 :	3.75;	4832 :	3.75;	9299 :	3.75;	3500 :	5.0;	2950 :	5.0;	373 :	5.0;	5881 :	5.0;	3623 :	5.0;	19 :	6.25;	2339 :	6.25;	7730 :	6.25;	1199 :	6.25;	3957 :	6.25;	914 :	6.25;	2950 :	6.25;	264 :	7.5;	387 :	7.5;	10 :	7.5;	13718 :	7.5;	875 :	7.5;	6426 :	7.5;	8210 :	7.5;	59 :	8.75;	1978 :	9.375;	3869 :	10.0;	635 :	10.0;	790 :	11.25;	151 :	11.25;	10169 :	12.5;	7730 :	12.5;	2950 :	13.3333333325;	238 :	18.75;
Origin 25
	424 :	0.83333333325;	863 :	1.0;	340 :	1.0;	91 :	1.875;	1426 :	1.875;	2950 :	2.5;	1236 :	2.5;	2151 :	2.5;	1376 :	2.5;	3036 :	2.5;	10597 :	2.5;	716 :	3.75;	5440 :	3.75;	2516 :	3.75;	9299 :	3.75;	178 :	3.75;	2027 :	3.75;	3097 :	3.75;	4577 :	3.75;	885 :	3.75;	1776 :	3.75;	4526 :	4.375;	2405 :	4.375;	2705 :	5.0;	219 :	5.0;	9299 :	5.0;	467 :	5.0;	2240 :	5.0;	1384 :	6.25;	5239 :	6.25;	1671 :	6.25;	689 :	7.5;	3044 :	8.125;	362 :	8.75;	439 :	8.75;	2271 :	13.75;	6591 :	18.75;
Origin 26
	2950 :	2.5;	106 :	2.5;	54 :	6.25;
Origin 28
	5695 :	0.2;	4826 :	0.41666666675;	252 :	0.625;	282 :	0.9375;	1106 :	0.9375;	7520 :	1.0;	818 :	1.0;	3694 :	1.0;	2516 :	1.0;	719 :	1.0;	3636 :	1.25;	231 :	1.25;	1118 :	1.25;	10298 :	1.25;	7579 :	1.25;	3234 :	1.66666666675;	8771 :	1.875;	7353 :	1.875;	1658 :	1.875;	11739 :	1.875;	31 :	2.25;	3636 :	2.5;	302 :	2.5;	2950 :	2.5;	790 :	2.5;	3827 :	2.5;	43 :	2.5;	1919 :	2.5;	1596 :	2.5;	7730 :	2.5;	151 :	2.5;	1978 :	2.5;	7875 :	2.5;	3221 :	2.5;	445 :	2.5;	3441 :	2.5;	3636 :	2.5;	7044 :	2.5;	1561 :	2.5;	2516 :	2.5;	463 :	2.5;	159 :	2.5;	765 :	2.5;	373 :	2.5;	1070 :	2.5;	59 :	2.5;	51 :	2.5;	3755 :	2.5;	480 :	2.5;	505 :	2.5;	1583 :	2.5;	730 :	2.5;	2256 :	2.5;	1930 :	2.5;	1825 :	2.5;	407 :	2.5;	813 :	2.5;	1697 :	2.5;	448 :	2.5;	794 :	2.5;	3636 :	2.5;	8210 :	2.5;	630 :	2.5;	7799 :	2.5;	2705 :	2.5;	4658 :	2.5;	846 :	2.5;	1820 :	2.5;	1186 :	2.5;	441 :	2.9166666675;	10022 :	3.75;	4582 :	3.75;	2 :	3.75;	962 :	3.75;	175 :	3.75;	2935 :	3.75;	809 :	3.75;	3636 :	3.75;	1106 :	3.75;	14617 :	3.75;	133 :	5.0;	2850 :	5.0;	11739 :	5.0;	3957 :	5.0;	914 :	5.0;	1864 :	5.0;	1179 :	5.0;	669 :	5.0;	215 :	5.0;	145 :	5.0;	106 :	6.25;	397 :	6.25;	867 :	6.25;	1106 :	6.25;	419 :	6.25;	2121 :	6.25;	352 :	6.25;	7875 :	6.25;	6178 :	7.5;	331 :	7.5;	96 :	7.5;	178 :	7.5;	2271 :	7.5;	391 :	7.5;	1283 :	7.5;	576 :	7.5;	8210 :	7.5;	4529 :	8.75;	9955 :	8.75;	66 :	10.0;	1899 :	10.0;	39 :	11.25;	1432 :	12.5;	58 :	12.5;	6406 :	13.75;	560 :	15.0;	2747 :	15.0;
Origin 30
	1106 :	1.0;	4614 :	1.0;	8771 :	1.0;	453 :	1.0;	2386 :	1.0;	129 :	1.0;	8771 :	1.0;	879 :	1.0;	4832 :	1.0;	3636 :	1.0;	7503 :	1.0;	681 :	1.0;	11682 :	1.25;	4563 :	1.25;	4163 :	1.25;	9124 :	1.25;	63 :	2.5;	9299 :	2.5;	13723 :	2.5;	628 :	2.5;	13718 :	2.5;	1037 :	2.5;	73 :	2.5;	1485 :	2.5;	4529 :	2.5;	178 :	2.5;	1451 :	2.5;	2062 :	2.5;	1267 :	2.5;	405 :	2.5;	1160 :	2.5;	2183 :	2.5;	537 :	2.5;	4670 :	2.5;	467 :	2.5;	544 :	2.5;	14329 :	2.5;	9130 :	2.5;	8735 :	2.5;	5881 :	3.125;	2950 :	3.75;	5695 :	3.75;	8 :	3.75;	889 :	3.75;	1596 :	3.75;	578 :	3.75;	9392 :	3.75;	1677 :	3.75;	1561 :	3.75;	403 :	3.75;	1179 :	3.75;	7649 :	3.75;	772 :	3.75;	2271 :	3.75;	439 :	3.75;	4658 :	3.75;	3667 :	3.75;	138 :	3.75;	8735 :	3.75;	264 :	5.0;	7520 :	5.0;	11799 :	5.0;	7353 :	5.0;	207 :	5.0;	8771 :	5.0;	1350 :	5.0;	9286 :	5.0;	8533 :	5.0;	13062 :	5.0;	2449 :	5.0;	6633 :	5.0;	397 :	6.25;	790 :	6.25;	4582 :	6.25;	1454 :	6.25;	7520 :	6.25;	8131 :	8.75;	2950 :	10.0;	9124 :	10.0;	2516 :	10.0;	4123 :	10.0;	6900 :	11.25;	2549 :	11.25;	3636 :	11.25;	1978 :	16.25;
Origin 32
	4373 :	1.25;	5695 :	1.875;	463 :	1.875;	1864 :	1.875;	2216 :	1.875;	1583 :	1.875;	96 :	2.5;	37 :	2.5;	1452 :	2.5;	3713 :	2.5;	3636 :	2.5;	1685 :	2.5;	75 :	2.5;	1016 :	2.5;	4814 :	2.5;	8210 :	2.5;	7156 :	2.5;	9955 :	2.5;	14489 :	3.125;	755 :	3.75;	302 :	3.75;	87 :	3.75;	2850 :	3.75;	2950 :	3.75;	1596 :	3.75;	682 :	3.75;	3636 :	3.75;	453 :	3.75;	653 :	3.75;	873 :	3.75;	109 :	3.75;	12051 :	3.75;	3830 :	3.75;	6 :	3.75;	11739 :	3.75;	4300 :	3.75;	1020 :	3.75;	5648 :	3.75;	7164 :	3.75;	689 :	3.75;	355 :	3.75;	62 :	3.75;	4832 :	3.75;	292 :	3.75;	551 :	3.75;	13062 :	3.75;	3636 :	3.75;	10296 :	3.75;	11367 :	3.75;	3054 :	3.75;	7520 :	5.0;	66 :	5.0;	3463 :	5.0;	1964 :	5.0;	301 :	5.0;	193 :	5.0;	10306 :	5.0;	159 :	5.0;	17 :	5.0;	564 :	5.0;	1106 :	5.0;	7977 :	5.0;	560 :	6.25;	2062 :	6.25;	2935 :	6.25;	1336 :	6.25;	9913 :	6.25;	14489 :	7.5;	1323 :	7.5;	765 :	7.5;	4123 :	7.5;	2705 :	8.75;	182 :	8.75;	2516 :	8.75;	683 :	9.375;	8 :	10.0;	6461 :	10.0;	4832 :	10.0;	9124 :	10.625;	59 :	10.625;	2065 :	11.25;	70 :	11.25;	2516 :	12.5;	8210 :	13.75;	969 :	13.75;	1263 :	13.75;	3636 :	13.75;	1561 :	15.0;	483 :	18.75;	1919 :	20.625;	2738 :	33.75;
Origin 34
	4405 :	0.5;	200 :	0.625;	3636 :	1.0;	96 :	1.0;	3954 :	1.0;	8771 :	1.0;	492 :	1.25;	730 :	1.25;	470 :	1.25;	397 :	1.25;	364 :	1.25;	3830 :	1.875;	2950 :	2.5;	558 :	2.5;	13723 :	2.5;	6900 :	2.5;	981 :	2.5;	6091 :	2.5;	142 :	2.5;	492 :	2.5;	397 :	3.75;	5695 :	3.75;	716 :	3.75;	2174 :	3.75;	301 :	3.75;	994 :	3.75;	740 :	3.75;	4832 :	3.75;	11739 :	3.75;	7520 :	3.75;	151 :	4.5833333325;	244 :	5.0;	445 :	5.0;	833 :	5.0;	11410 :	5.0;	8210 :	5.0;	12500 :	5.0;	782 :	5.0;	13107 :	5.0;	453 :	5.625;	3880 :	6.25;	3500 :	6.25;	8829 :	6.25;	956 :	6.25;	47 :	6.25;	4021 :	6.25;	3405 :	6.25;	2549 :	6.25;	2705 :	7.5;	260 :	7.5;	82 :	7.5;	1454 :	8.3333333325;	1784 :	8.75;	8829 :	8.75;	31 :	11.25;	889 :	12.5;	1415 :	12.5;	3500 :	13.75;
Origin 35
	8210 :	1.25;
Origin 37
	2516 :	0.33333333325;	9866 :	0.5;	867 :	0.9375;	391 :	1.0;	7520 :	1.0;	157 :	1.0;	7680 :	1.0;	3636 :	2.5;	1206 :	2.5;	2850 :	2.5;	1848 :	2.5;	2516 :	2.5;	11799 :	2.5;	682 :	2.5;	2516 :	2.5;	91 :	2.5;	178 :	2.5;	2516 :	2.5;	7353 :	2.5;	386 :	2.5;	5002 :	2.5;	45 :	2.5;	576 :	2.5;	875 :	2.5;	8242 :	2.5;	8210 :	2.5;	11458 :	2.5;	1092 :	2.5;	6957 :	2.5;	4259 :	3.75;	683 :	3.75;	7231 :	3.75;	257 :	3.75;	3636 :	3.75;	3694 :	3.75;	9518 :	3.75;	159 :	3.75;	3636 :	3.75;	10682 :	3.75;	10870 :	3.75;	3073 :	3.75;	184 :	3.75;	480 :	3.75;	9085 :	3.75;	2013 :	3.75;	3097 :	3.75;	7156 :	3.75;	1106 :	3.75;	2516 :	3.75;	3069 :	3.75;	6543 :	3.75;	4294 :	3.75;	2705 :	5.0;	182 :	5.0;	3827 :	5.0;	8416 :	5.0;	1274 :	5.0;	3094 :	5.0;	759 :	5.0;	7730 :	5.0;	4832 :	5.0;	677 :	5.0;	870 :	5.0;	7520 :	5.0;	3636 :	5.0;	1412 :	5.0;	730 :	5.0;	7875 :	5.0;	1550 :	5.0;	1258 :	5.0;	7520 :	5.0;	8210 :	5.0;	11739 :	5.0;	3636 :	5.0;	9822 :	6.25;	1568 :	6.25;	70 :	6.25;	106 :	7.5;	5695 :	7.5;	2062 :	7.5;	4300 :	7.5;	3702 :	7.5;	2325 :	7.8333333325;	14429 :	8.75;	2181 :	8.75;	196 :	8.75;	59 :	8.75;	1583 :	8.75;	617 :	8.75;	8153 :	8.75;	421 :	8.75;	2950 :	10.0;	2673 :	10.0;	8 :	11.25;	1864 :	11.25;	11367 :	11.25;	313 :	12.5;	1150 :	12.5;	846 :	12.5;	426 :	13.75;	3636 :	13.75;	2032 :	15.0;	13274 :	15.0;	983 :	16.25;	8210 :	17.5;	31 :	18.125;	1561 :	21.25;	443 :	26.25;
Origin 39
	184 :	0.5;	1451 :	0.83333333325;	1106 :	0.83333333325;	3647 :	0.83333333325;	1695 :	0.83333333325;	1206 :	1.0;	571 :	1.0;	871 :	1.0;	9299 :	1.0;	3898 :	1.0;	4753 :	1.0;	7236 :	1.0;	3054 :	1.0;	1273 :	1.0;	921 :	1.25;	1008 :	1.25;	414 :	1.25;	583 :	1.25;	8210 :	1.66666666675;	5879 :	2.5;	558 :	2.5;	2622 :	2.5;	380 :	2.5;	4832 :	2.5;	373 :	2.5;	5869 :	2.5;	1539 :	2.5;	1283 :	2.5;	8092 :	2.5;	6178 :	2.5;	2516 :	2.5;	8945 :	2.5;	524 :	2.5;	1820 :	2.5;	7730 :	2.5;	8735 :	2.5;	8210 :	2.5;	133 :	3.75;	6900 :	3.75;	178 :	3.75;	2062 :	3.75;	215 :	3.75;	125 :	3.75;	709 :	3.75;	778 :	3.75;	3463 :	3.75;	6860 :	3.75;	1603 :	3.75;	1041 :	5.0;	526 :	5.0;	17 :	5.0;	129 :	5.0;	3859 :	5.0;	522 :	5.0;	2549 :	5.0;	1106 :	6.25;	962 :	6.25;	730 :	6.25;	441 :	6.25;	647 :	6.25;	1129 :	6.25;	3869 :	7.5;	331 :	7.5;	419 :	7.5;	352 :	7.5;	1964 :	8.75;	1978 :	10.0;	101 :	11.25;	3948 :	11.25;	7649 :	12.5;	3190 :	12.5;	8210 :	12.5;
Origin 40
	54 :	2.5;	483 :	8.75;
Origin 42
	7520 :	0.33333333325;	827 :	1.0;	106 :	2.5;	8416 :	2.5;	2622 :	2.5;	10308 :	2.5;	1509 :	2.5;	3009 :	3.75;	2516 :	5.0;	7016 :	6.875;
Origin 43
	7520 :	2.5;	106 :	3.75;	483 :	6.25;
Origin 45
	716 :	0.5;	8210 :	1.0;	264 :	1.25;	43 :	1.25;	4259 :	2.5;	66 :	2.5;	5320 :	2.5;	3441 :	2.5;	1677 :	2.5;	175 :	2.5;	1070 :	2.5;	196 :	2.5;	1372 :	2.5;	170 :	2.5;	574 :	2.5;	6557 :	2.5;	8771 :	2.5;	7520 :	2.5;	2675 :	2.5;	794 :	2.5;	4832 :	2.5;	1106 :	2.5;	1092 :	2.5;	1898 :	2.5;	2403 :	2.5;	9540 :	2.5;	4123 :	2.5;	2850 :	3.75;	2622 :	3.75;	14489 :	3.75;	6 :	3.75;	2062 :	3.75;	129 :	3.75;	7164 :	3.75;	709 :	3.75;	8210 :	3.75;	8210 :	3.75;	14489 :	3.75;	2673 :	3.75;	7520 :	5.0;	8210 :	5.0;	3636 :	5.0;	4826 :	5.0;	8210 :	5.0;	2516 :	5.0;	2516 :	5.0;	3636 :	6.25;	578 :	6.25;	91 :	6.25;	507 :	6.25;	463 :	6.25;	52 :	6.25;	1864 :	6.25;	2181 :	6.25;	352 :	6.25;	1583 :	6.25;	7164 :	6.25;	419 :	7.5;	560 :	7.5;	321 :	7.5;	184 :	7.5;	1179 :	7.5;	70 :	7.5;	7579 :	7.5;	885 :	7.5;	282 :	8.75;	689 :	8.75;	13961 :	10.0;	3713 :	11.25;	3073 :	11.25;	3859 :	11.25;	813 :	11.25;	361 :	11.25;	7730 :	11.25;	8210 :	12.5;	2516 :	13.75;	962 :	13.75;	817 :	13.75;	1106 :	15.0;	4300 :	18.125;
Origin 46
	3636 :	8.75;
Origin 48
	969 :	1.0;	1432 :	1.0;	560 :	1.0;	2516 :	1.0;	129 :	1.0;	3702 :	1.25;	460 :	1.45833333325;	8210 :	2.5;	282 :	2.5;	63 :	2.5;	4564 :	2.5;	3667 :	2.5;	159 :	2.5;	1070 :	2.5;	10538 :	2.5;	2216 :	2.5;	2230 :	2.5;	1283 :	2.5;	3446 :	2.5;	1050 :	2.5;	689 :	2.5;	355 :	2.5;	748 :	2.5;	1064 :	2.5;	2746 :	2.5;	2427 :	2.5;	755 :	3.75;	1919 :	3.75;	31 :	3.75;	8210 :	3.75;	196 :	3.75;	1412 :	3.75;	669 :	3.75;	58 :	3.75;	470 :	3.75;	9955 :	3.75;	142 :	4.375;	106 :	5.0;	11739 :	5.0;	2850 :	5.0;	1436 :	5.0;	944 :	5.0;	12328 :	5.0;	426 :	5.0;	606 :	5.0;	8210 :	6.25;	91 :	6.6666666675;	7730 :	7.5;	1263 :	7.5;	5869 :	7.5;	607 :	7.5;	8567 :	7.5;	483 :	8.75;	463 :	8.75;	2516 :	8.75;	962 :	11.25;	59 :	11.25;	45 :	12.5;	1864 :	16.25;	2950 :	18.75;
Origin 52
	106 :	1.25;	1596 :	1.25;	3694 :	1.25;	765 :	1.25;	1919 :	2.5;	22 :	2.5;	2622 :	2.5;	13386 :	2.5;	12051 :	2.5;	1561 :	2.5;	159 :	2.5;	5881 :	2.5;	778 :	2.5;	9299 :	3.75;	41 :	3.75;	193 :	3.75;	182 :	6.25;	962 :	8.75;	914 :	8.75;	1788 :	8.75;	1830 :	10.0;	730 :	11.25;	683 :	17.5;	1583 :	25.0;
Origin 54
	391 :	1.25;	125 :	1.875;	10192 :	2.5;	274 :	2.5;	2935 :	2.5;	171 :	3.75;	171 :	5.0;	96 :	6.25;
Origin 55
	7520 :	1.0;	54 :	2.5;	7520 :	2.5;	417 :	2.5;	491 :	2.5;	2850 :	3.75;	106 :	5.0;	1919 :	5.0;	282 :	7.5;	10192 :	7.5;
Origin 57
	133 :	0.5;	10870 :	0.625;	249 :	0.83333333325;	1047 :	0.9375;	4563 :	0.9375;	867 :	1.0;	159 :	1.0;	1822 :	1.0;	924 :	1.0;	1070 :	1.0;	6557 :	1.0;	9493 :	1.0;	1784 :	1.25;	514 :	1.25;	296 :	1.25;	3636 :	1.25;	765 :	1.25;	921 :	1.25;	3492 :	2.5;	397 :	2.5;	3500 :	2.5;	1919 :	2.5;	3500 :	2.5;	96 :	2.5;	6624 :	2.5;	723 :	2.5;	3513 :	2.5;	12328 :	2.5;	2621 :	2.5;	6178 :	2.5;	129 :	2.5;	1106 :	2.5;	2121 :	2.5;	6426 :	2.5;	3636 :	3.125;	8771 :	3.125;	8771 :	3.75;	3221 :	3.75;	1263 :	3.75;	175 :	3.75;	7353 :	3.75;	373 :	3.75;	403 :	3.75;	895 :	3.75;	7979 :	3.75;	1451 :	4.125;	444 :	4.375;	231 :	4.375;	4874 :	5.0;	106 :	5.0;	2850 :	5.0;	11739 :	5.0;	380 :	5.0;	331 :	5.0;	3636 :	5.0;	91 :	5.0;	426 :	5.0;	958 :	5.0;	3054 :	5.0;	1182 :	5.0;	3013 :	5.0;	9299 :	5.0;	1131 :	5.5;	9518 :	5.625;	10192 :	6.25;	1964 :	6.25;	9600 :	6.25;	7520 :	6.25;	1113 :	6.25;	2181 :	6.25;	564 :	6.25;	6406 :	6.25;	5869 :	6.25;	8370 :	6.25;	7579 :	6.25;	790 :	7.5;	7520 :	7.5;	6591 :	7.5;	3830 :	7.5;	1236 :	7.5;	15 :	7.5;	7520 :	8.75;	962 :	8.75;	321 :	10.0;	3636 :	11.25;
Origin 59
	2516 :	0.5;	908 :	0.83333333325;	885 :	1.25;	7236 :	1.25;	96 :	1.875;	2850 :	2.5;	8 :	2.5;	889 :	2.5;	10192 :	2.5;	2516 :	2.5;	129 :	2.5;	184 :	2.5;	2216 :	2.5;	127 :	2.5;	2271 :	2.5;	443 :	2.5;	505 :	2.5;	3446 :	2.5;	229 :	2.5;	99 :	2.5;	576 :	2.5;	748 :	2.5;	11739 :	2.5;	4974 :	2.5;	8210 :	2.5;	1162 :	2.5;	5483 :	2.5;	202 :	2.5;	1898 :	2.5;	4832 :	2.5;	850 :	2.5;	719 :	2.5;	3636 :	2.5;	7932 :	2.5;	8210 :	2.5;	106 :	3.75;	1432 :	3.75;	66 :	3.75;	14489 :	3.75;	1106 :	3.75;	1864 :	4.375;	419 :	5.0;	962 :	5.0;	175 :	5.0;	1070 :	5.0;	3827 :	6.25;	1179 :	6.25;	43 :	7.5;	91 :	7.5;	3073 :	7.5;	4928 :	7.5;	4832 :	7.5;	682 :	8.75;	1372 :	8.75;	1412 :	8.75;	3636 :	8.75;	13062 :	8.75;	4300 :	21.25;
Origin 60
	129 :	0.33333333325;	4259 :	0.5;	1596 :	0.5;	8242 :	0.83333333325;	63 :	1.0;	635 :	1.0;	1978 :	1.0;	1109 :	1.0;	5320 :	1.0;	49 :	1.0;	8533 :	1.0;	8886 :	1.0;	9299 :	1.0;	487 :	1.0;	2020 :	1.0;	306 :	1.0;	3830 :	1.25;	1041 :	1.875;	558 :	1.875;	6178 :	1.875;	8945 :	2.25;	2950 :	2.5;	182 :	2.5;	8829 :	2.5;	380 :	2.5;	863 :	2.5;	68 :	2.5;	3185 :	2.5;	15 :	2.5;	3368 :	2.5;	207 :	2.5;	24 :	2.5;	1290 :	2.5;	9299 :	2.5;	759 :	2.5;	1807 :	2.5;	9600 :	2.5;	3190 :	2.5;	6557 :	2.5;	5927 :	2.5;	615 :	2.5;	3622 :	2.5;	6519 :	2.5;	11250 :	2.5;	926 :	2.5;	350 :	2.5;	9299 :	2.5;	8735 :	2.5;	2 :	3.125;	13723 :	3.75;	66 :	3.75;	3636 :	3.75;	7730 :	3.75;	526 :	3.75;	252 :	3.75;	763 :	3.75;	7164 :	3.75;	4971 :	3.75;	10298 :	3.75;	4123 :	3.75;	7520 :	3.75;	298 :	3.75;	192 :	3.75;	1490 :	3.75;	7977 :	3.75;	3830 :	3.75;	511 :	3.75;	1307 :	3.75;	3388 :	3.75;	263 :	3.75;	7579 :	3.75;	1643 :	4.375;	485 :	5.0;	6178 :	5.0;	9422 :	5.0;	924 :	5.0;	196 :	5.0;	702 :	5.0;	171 :	5.0;	596 :	5.0;	1031 :	5.0;	2667 :	5.0;	8735 :	5.0;	1360 :	5.0;	46 :	5.625;	1162 :	5.625;	10 :	6.25;	1722 :	6.25;	3302 :	6.25;	2248 :	6.25;	3830 :	6.25;	7080 :	6.25;	7730 :	7.5;	13720 :	7.5;	8735 :	7.5;	755 :	8.75;	6900 :	8.75;	9299 :	8.75;	10298 :	8.75;	6051 :	8.75;	642 :	10.0;	153 :	10.0;	4582 :	11.25;	188 :	11.25;	9124 :	14.25;	8771 :	14.5;	797 :	15.625;	387 :	16.25;	1714 :	17.5;	9286 :	20.0;
Origin 61
	106 :	1.0;	7730 :	5.0;	264 :	5.3333333325;	8210 :	7.5;	2705 :	20.0;
Origin 63
	1848 :	0.41666666675;	677 :	0.41666666675;	2271 :	0.41666666675;	12051 :	0.625;	8210 :	0.83333333325;	460 :	0.83333333325;	8210 :	0.9375;	787 :	1.0;	19 :	1.25;	14489 :	1.25;	397 :	2.5;	10 :	2.5;	8829 :	2.5;	2850 :	2.5;	10198 :	2.5;	1919 :	2.5;	358 :	2.5;	1511 :	2.5;	492 :	2.5;	31 :	2.5;	3830 :	2.5;	367 :	2.5;	410 :	2.5;	91 :	2.5;	12328 :	2.5;	3054 :	2.5;	1236 :	2.5;	405 :	2.5;	439 :	2.5;	1150 :	2.5;	647 :	2.5;	166 :	2.5;	2599 :	2.5;	3636 :	2.5;	2516 :	2.5;	3912 :	2.5;	544 :	2.5;	574 :	3.125;	10308 :	3.125;	790 :	3.75;	4582 :	3.75;	889 :	3.75;	6543 :	3.75;	1454 :	3.75;	628 :	3.75;	331 :	3.75;	2062 :	3.75;	1864 :	3.75;	1372 :	3.75;	443 :	3.75;	3565 :	3.75;	840 :	3.75;	1368 :	4.125;	1106 :	5.0;	4832 :	5.0;	7730 :	5.0;	8771 :	5.0;	517 :	5.0;	8210 :	5.0;	13723 :	7.5;	870 :	7.5;	888 :	7.5;	7730 :	7.5;	4832 :	8.75;	642 :	8.75;	1291 :	8.75;	387 :	13.75;	101 :	13.75;
Origin 64
	3636 :	1.66666666675;
Origin 66
	2216 :	0.83333333325;	8210 :	0.9375;	867 :	1.0;	284 :	1.0;	426 :	1.0;	1583 :	1.0;	45 :	1.0;	10214 :	1.0;	1106 :	1.25;	4826 :	1.25;	3694 :	1.25;	421 :	1.25;	578 :	1.875;	2599 :	1.875;	54 :	2.5;	2850 :	2.5;	4832 :	2.5;	3636 :	2.5;	85 :	2.5;	1037 :	2.5;	7624 :	2.5;	873 :	2.5;	6543 :	2.5;	1568 :	2.5;	7367 :	2.5;	3636 :	2.5;	5483 :	2.5;	3636 :	2.5;	196 :	2.5;	2256 :	2.5;	125 :	2.5;	1016 :	2.5;	709 :	2.5;	7520 :	2.5;	70 :	2.5;	460 :	2.5;	2027 :	2.5;	562 :	2.5;	2516 :	2.5;	210 :	2.5;	10298 :	2.5;	4826 :	2.5;	1899 :	2.5;	7730 :	2.5;	1424 :	2.5;	1848 :	3.75;	282 :	3.75;	28 :	3.75;	1848 :	3.75;	682 :	3.75;	4373 :	3.75;	12474 :	3.75;	962 :	3.75;	3667 :	3.75;	4832 :	3.75;	1864 :	3.75;	7649 :	3.75;	2817 :	3.75;	2405 :	3.75;	441 :	3.75;	304 :	3.75;	862 :	3.75;	2950 :	3.75;	1092 :	3.75;	6606 :	3.75;	7520 :	3.75;	1186 :	3.75;	2427 :	3.75;	59 :	5.0;	14489 :	5.625;	3500 :	6.25;	1432 :	6.25;	279 :	6.25;	1115 :	6.25;	391 :	6.25;	2516 :	7.5;	505 :	8.75;	1911 :	8.75;	3446 :	8.75;	352 :	9.375;	491 :	10.0;	1179 :	10.0;	2403 :	10.0;	51 :	11.25;	129 :	13.75;	91 :	21.25;
Origin 68
	13723 :	0.5;	159 :	0.5;	441 :	0.5;	169 :	0.83333333325;	3636 :	1.0;	3954 :	1.0;	1050 :	1.0;	3636 :	1.0;	889 :	1.25;	6854 :	1.25;	9956 :	1.25;	373 :	2.08333333325;	11410 :	2.5;	558 :	2.5;	358 :	2.5;	85 :	2.5;	5807 :	2.5;	682 :	2.5;	308 :	2.5;	5320 :	2.5;	11739 :	2.5;	352 :	2.5;	1539 :	2.5;	709 :	2.5;	378 :	2.5;	304 :	2.5;	647 :	2.5;	4814 :	2.5;	2548 :	2.5;	4832 :	2.5;	1376 :	2.5;	2549 :	2.5;	47 :	3.75;	410 :	3.75;	5684 :	3.75;	7750 :	3.75;	6481 :	3.75;	387 :	5.0;	11773 :	5.0;	2174 :	5.0;	419 :	5.0;	3067 :	5.0;	193 :	5.0;	2271 :	5.0;	1930 :	5.0;	5881 :	5.0;	4832 :	5.0;	362 :	5.625;	3869 :	7.5;	63 :	7.5;	101 :	7.5;	8210 :	8.75;	380 :	11.25;
Origin 70
	2405 :	0.5;	765 :	0.625;	2919 :	1.0;	8771 :	1.0;	7164 :	1.0;	6481 :	1.0;	5704 :	1.25;	2516 :	1.25;	2817 :	1.875;	304 :	1.875;	1106 :	1.875;	4826 :	1.875;	4832 :	1.875;	8210 :	2.5;	282 :	2.5;	3636 :	2.5;	818 :	2.5;	8210 :	2.5;	3636 :	2.5;	11799 :	2.5;	526 :	2.5;	223 :	2.5;	316 :	2.5;	1332 :	2.5;	2738 :	2.5;	15 :	2.5;	5780 :	2.5;	1291 :	2.5;	45 :	2.5;	378 :	2.5;	13922 :	2.5;	1258 :	2.5;	3283 :	2.5;	4928 :	2.5;	8210 :	2.5;	1129 :	2.5;	138 :	2.5;	3190 :	2.5;	755 :	3.125;	397 :	3.75;	3827 :	3.75;	43 :	3.75;	716 :	3.75;	2622 :	3.75;	7173 :	3.75;	3636 :	3.75;	3500 :	3.75;	9822 :	3.75;	1561 :	3.75;	463 :	3.75;	4300 :	3.75;	1395 :	3.75;	159 :	3.75;	1070 :	3.75;	391 :	3.75;	229 :	3.75;	746 :	3.75;	233 :	3.75;	623 :	3.75;	971 :	3.75;	551 :	3.75;	377 :	3.75;	7156 :	3.75;	846 :	3.75;	2516 :	3.75;	421 :	3.75;	2850 :	5.0;	8 :	5.0;	31 :	5.0;	109 :	5.0;	6543 :	5.0;	4832 :	5.0;	386 :	5.0;	2516 :	5.0;	2062 :	6.25;	426 :	6.25;	51 :	6.25;	8846 :	6.25;	1206 :	7.5;	37 :	7.5;	12474 :	7.5;	3957 :	7.5;	3636 :	7.5;	8210 :	7.5;	129 :	7.5;	2216 :	7.5;	1596 :	8.125;	1864 :	8.75;	2950 :	8.75;	6375 :	8.75;	1919 :	10.0;	4194 :	10.0;	106 :	12.5;	91 :	26.25;
Origin 72
	2576 :	0.83333333325;	9518 :	0.83333333325;	8210 :	0.83333333325;	653 :	1.0;	623 :	1.0;	3054 :	1.0;	31 :	1.25;	953 :	1.25;	1323 :	1.25;	448 :	1.25;	967 :	1.25;	2516 :	1.875;	233 :	2.08333333325;	2950 :	2.375;	54 :	2.5;	969 :	2.5;	5879 :	2.5;	3827 :	2.5;	362 :	2.5;	5695 :	2.5;	417 :	2.5;	3636 :	2.5;	4300 :	2.5;	5483 :	2.5;	1106 :	2.5;	1583 :	2.5;	1825 :	2.5;	1336 :	2.5;	13922 :	2.5;	1067 :	2.5;	7520 :	2.5;	3054 :	2.5;	3636 :	2.5;	9536 :	2.5;	1848 :	2.5;	14489 :	3.125;	8210 :	3.125;	3957 :	3.3333333325;	790 :	3.75;	787 :	3.75;	914 :	3.75;	75 :	3.75;	2992 :	3.75;	2159 :	3.75;	2959 :	3.75;	7730 :	5.0;	822 :	5.0;	65 :	5.0;	3636 :	5.0;	8210 :	5.0;	443 :	5.0;	1426 :	5.0;	8846 :	5.0;	4777 :	5.0;	1106 :	5.0;	2197 :	5.0;	3636 :	5.0;	3453 :	5.0;	8210 :	5.0;	2919 :	6.25;	4529 :	6.25;	301 :	6.25;	1372 :	6.25;	659 :	6.25;	8210 :	7.0833333325;	14429 :	7.5;	1332 :	7.5;	2516 :	7.5;	11799 :	8.75;	3694 :	8.75;
Origin 73
	11739 :	3.75;
Origin 75
	63 :	1.875;	683 :	1.875;	4405 :	1.875;	2950 :	1.875;	182 :	2.5;	2850 :	2.5;	9822 :	2.5;	3957 :	2.5;	6316 :	2.5;	3636 :	2.5;	7979 :	2.5;	601 :	2.5;	7750 :	2.5;	302 :	3.75;	8827 :	3.75;	14489 :	3.75;	11799 :	3.75;	1964 :	3.75;	1109 :	3.75;	301 :	3.75;	252 :	3.75;	8846 :	3.75;	7875 :	3.75;	593 :	3.75;	5834 :	3.75;	8210 :	3.75;	8829 :	5.0;	3694 :	5.0;	12328 :	5.0;	441 :	5.0;	106 :	5.625;	391 :	6.25;	576 :	6.25;	5907 :	6.25;	2516 :	7.5;	2516 :	7.5;	9539 :	7.5;	8771 :	7.5;	895 :	8.75;	1919 :	10.0;	669 :	10.0;	5563 :	12.5;	2705 :	15.0;
Origin 76
	106 :	1.66666666675;	7520 :	2.5;	483 :	2.5;
Origin 79
	790 :	2.5;	1848 :	2.5;	507 :	2.5;	702 :	2.5;	8522 :	2.5;	2092 :	2.5;	6543 :	2.5;	108 :	2.5;	380 :	3.75;	308 :	3.75;	2516 :	3.75;	11250 :	3.75;	264 :	5.0;	387 :	5.0;	125 :	5.0;
Origin 80
	2950 :	0.2;	106 :	2.5;
Origin 83
	1106 :	2.5;	14489 :	2.5;	380 :	2.5;	1978 :	2.5;	2874 :	2.5;	570 :	2.5;	125 :	2.5;	8131 :	2.5;	39 :	2.5;	1671 :	2.5;	7579 :	2.5;	1552 :	3.75;	439 :	7.5;	2747 :	7.5;	1887 :	8.75;
Origin 85
	171 :	0.25;	2339 :	0.625;	558 :	1.0;	7977 :	1.0;	2062 :	1.0;	14617 :	1.0;	1432 :	1.25;	8210 :	1.25;	9286 :	1.25;	397 :	1.875;	19 :	1.875;	171 :	1.875;	10298 :	1.875;	6091 :	1.875;	2705 :	2.5;	2950 :	2.5;	485 :	2.5;	10198 :	2.5;	6178 :	2.5;	331 :	2.5;	178 :	2.5;	140 :	2.5;	6314 :	2.5;	171 :	2.5;	7977 :	2.5;	171 :	2.5;	9299 :	2.5;	106 :	3.75;	827 :	3.75;	2850 :	3.75;	787 :	3.75;	1596 :	3.75;	635 :	3.75;	31 :	3.75;	1978 :	3.75;	3830 :	3.75;	5483 :	3.75;	759 :	3.75;	9124 :	3.75;	956 :	3.75;	2516 :	3.75;	445 :	3.75;	7579 :	3.75;	8771 :	3.75;	1685 :	3.75;	125 :	3.75;	6426 :	3.75;	1282 :	3.75;	5881 :	3.75;	626 :	3.75;	609 :	3.75;	12500 :	3.75;	596 :	3.75;	8984 :	3.75;	778 :	3.75;	2697 :	3.75;	9299 :	3.75;	637 :	3.75;	1805 :	3.75;	2697 :	3.75;	483 :	5.0;	7977 :	5.0;	1274 :	5.0;	571 :	5.0;	41 :	5.0;	316 :	5.0;	574 :	5.0;	405 :	5.0;	439 :	5.0;	9600 :	5.0;	13476 :	5.0;	3363 :	5.0;	3636 :	5.0;	1164 :	5.0;	2950 :	5.625;	1509 :	5.625;	2073 :	6.25;	903 :	6.25;	9518 :	6.25;	3286 :	6.25;	432 :	6.25;	1291 :	6.25;	889 :	6.875;	1919 :	7.5;	3094 :	7.5;	2320 :	7.5;	517 :	7.5;	8829 :	7.5;	3889 :	7.5;	716 :	8.75;	628 :	8.75;	1037 :	8.75;	308 :	8.75;	1376 :	8.75;	2681 :	10.0;	765 :	10.0;	2108 :	10.0;	298 :	10.0;	7173 :	10.0;	8533 :	10.0;	3363 :	10.0;	9299 :	10.0;	8771 :	10.0;	7730 :	11.25;	4001 :	11.25;	279 :	11.25;	1160 :	11.25;	2599 :	11.25;	617 :	11.875;	11773 :	13.75;	8771 :	13.75;	1199 :	13.75;	1217 :	13.75;	3363 :	15.0;	767 :	27.5;	474 :	55.0;
Origin 87